#P B3LYP/6-31G*
#  Units(Ang,Deg)

File generated by CCPI
MM/SE Energy(kCal/mol) = -138.906880

0 1
N 0.423100 -1.096000 0.896600
C 0.104400 -0.224000 -0.251800
C 0.720300 1.167700 -0.120700
O 1.399900 1.609400 0.774500
C -1.435000 -0.119500 -0.405000
O -1.954300 -1.358100 -0.874400
O 0.414600 1.937500 -1.212000
H 1.414500 -1.324900 0.921900
H 0.194800 -0.646500 1.781800
H 0.508100 -0.701400 -1.193100
H -1.709600 0.599000 -1.205000
H -1.927300 0.154900 0.544900
H -1.697100 -2.087600 -0.258800
H 0.810200 2.851500 -1.166900

