%mem=32GB
%nproc=16
%chk=conf_0.chk
# B3LYP/6-31+G Opt=loose int=grid=sg1 Test

Geometry generated by LasCMD Energy (kcal/mol) = -138.906910
[Gas-Phase]

0,1
N,1.4667,-0.392,-0.7605
C,0.0566,-0.1081,-0.4261
C,-0.2679,1.384,-0.4695
O,0.465,2.3064,-0.7345
C,-0.2657,-0.6895,0.9747
O,-0.3014,-2.1102,0.9065
O,-1.5853,1.6026,-0.1639
H,2.1046,0.1658,-0.1949
H,1.6643,-0.1791,-1.736
H,-0.6068,-0.6351,-1.1738
H,-1.293,-0.4171,1.2943
H,0.4709,-0.3713,1.7337
H,0.5569,-2.4535,0.5567
H,-1.8372,2.5667,-0.1939


--link1--
%mem=32GB
%nproc=16
%nosave
%chk=conf_0.chk
# B3LYP/6-311++G** Opt=tight int=ultrafinegrid Test geom=allcheck guess=read


 perform a better optimization

--link1--
%mem=32GB
%nproc=16
%chk=conf_0.chk
# B3LYP/6-311++G** Freq Test Geom=allcheck Guess=Tcheck

 calculate Frequencies and Energies

--link1--
%mem=32GB
%nproc=16
%chk=conf_0.chk
# B3LYP/6-311++G** NMR Test Geom=allcheck Guess=read

 calculate the Magnetic tensors

--link1--
%mem=32GB
%nproc=16
%chk=conf_0.chk
# B3LYP/6-311++G** NMR=mixed Test Geom=allcheck Guess=read

 recalculate the Magnetic tensors and the spin-spin couplings


