14
MM/SEEnergy(kCal/mol)=-138.906850
N	-0.394200	-0.637600	-1.660900
C	-0.429300	-0.017800	-0.320900
C	0.048200	1.433100	-0.332800
O	0.433100	2.091000	-1.269400
C	0.430800	-0.860300	0.656200
O	-0.223200	-2.094500	0.927200
O	-0.013900	1.974500	0.924100
H	0.517900	-0.525600	-2.100800
H	-1.081600	-0.214400	-2.280900
H	-1.493100	-0.036300	0.059900
H	0.496600	-0.374900	1.652000
H	1.441300	-1.054500	0.254800
H	-0.396100	-2.577800	0.082500
H	0.280300	2.926600	0.952900
